  
       XFOIL         Version 6.96
  
 Calculated polar for: S1210 12%                                       
  
 1 1 Reynolds number fixed          Mach number fixed         
  
 xtrf =   0.100 (top)        0.100 (bottom)  
 Mach =   0.030     Re =     0.493 e 6     Ncrit =   9.000
  
   alpha    CL        CD       CDp       CM     Top_Xtr  Bot_Xtr
  ------ -------- --------- --------- -------- -------- --------
